9
IRON-SULFUR-MOLYBDENUM CLUSTER WITH INTERSTITIAL CARBON (with a bunch of stuff removed)
FE   10.018  -7.568  56.109
MO   16.132  -5.638  53.306
FE   11.990  -5.771  56.166
FE   11.277  -6.902  53.853
FE   12.528  -8.326  55.692
FE   14.820  -7.601  54.671
FE   14.226  -5.072  55.094
FE   13.550  -6.198  52.849
C    13.044  -6.665  54.724
